/*--------------------------------*- C++ -*----------------------------------*\
| =========                 |                                                 |
| \\      /  F ield         | OpenFOAM: The Open Source CFD Toolbox           |
|  \\    /   O peration     | Version:  2.0.1                                 |
|   \\  /    A nd           | Web:      www.OpenFOAM.com                      |
|    \\/     M anipulation  |                                                 |
\*---------------------------------------------------------------------------*/
FoamFile
{
    version     2.0;
    format      ascii;
    class       polyBoundaryMesh;
    location    "constant/polyMesh";
    object      boundary;
}
// * * * * * * * * * * * * * * * * * * * * * * * * * * * * * * * * * * * * * //

5
(
    outlet_extruded
    {
        type            patch;
        nFaces          7;
        startFace       6467;
    }
    Group_1_extruded
    {
        type            patch;
        nFaces          7;
        startFace       6474;
    }
    fixedWalls_extruded
    {
        type            patch;
        nFaces          722;
        startFace       6481;
    }
    symmetryPlane_extruded
    {
        type            patch;
        nFaces          274;
        startFace       7203;
    }
    defaultFaces
    {
        type            patch;
        nFaces          6972;
        startFace       7477;
    }
)

// ************************************************************************* //
