/*--------------------------------*- C++ -*----------------------------------*\
| =========                 |                                                 |
| \\      /  F ield         | OpenFOAM: The Open Source CFD Toolbox           |
|  \\    /   O peration     | Version:  2.0.1                                 |
|   \\  /    A nd           | Web:      www.OpenFOAM.com                      |
|    \\/     M anipulation  |                                                 |
\*---------------------------------------------------------------------------*/
FoamFile
{
    version     2.0;
    format      ascii;
    class       volScalarField;
    object      T;
}
// * * * * * * * * * * * * * * * * * * * * * * * * * * * * * * * * * * * * * //

dimensions      [0 0 0 1 0 0 0];

internalField   uniform 2.0; //2.0; //2.0;//2; //2; //1.8;

boundaryField
{
    inlet      
    {
//        type            fixedGradient;
//		gradient		uniform 0.0;
		type			zeroGradient; 
    }
	symmetryPlane
	{
		type  symmetryPlane;
	}

    outlet      
    {
        type            fixedValue;
		value			uniform 2.0; //2.0; //2.0; //2; //2; 
    }

    fixedWalls      
    {
        type            zeroGradient;
    }

    frontAndBack    
    {
        type            empty;
    }
}

// ************************************************************************* //
