/*--------------------------------*- C++ -*----------------------------------*\
| =========                 |                                                 |
| \\      /  F ield         | OpenFOAM: The Open Source CFD Toolbox           |
|  \\    /   O peration     | Version:  2.0.1                                 |
|   \\  /    A nd           | Web:      www.OpenFOAM.com                      |
|    \\/     M anipulation  |                                                 |
\*---------------------------------------------------------------------------*/
FoamFile
{
    version     2.0;
    format      ascii;
    class       volVectorField;
    object      Us;
}
// * * * * * * * * * * * * * * * * * * * * * * * * * * * * * * * * * * * * * //

dimensions      [0 1 -1 0 0 0 0];
internalField   uniform (0 0 0);

boundaryField
{
    inlet      
    {
//        type            zeroGradient;
        type            fixedValue;
        value           uniform (0 0 0);
//		  type 			  slip;
    }

	symmetryPlane
	{
		type  symmetryPlane;
	}

    outlet      
    {
        type            zeroGradient;
//        type            fixedValue;
//        value           uniform (0 0 0);
    }

    fixedWalls      
    {
		type			slip;
    }

    frontAndBack    
    {
        type            empty;
    }
}

// ************************************************************************* //
