/*--------------------------------*- C++ -*----------------------------------*\
| =========                 |                                                 |
| \\      /  F ield         | OpenFOAM: The Open Source CFD Toolbox           |
|  \\    /   O peration     | Version:  2.0.1                                 |
|   \\  /    A nd           | Web:      www.OpenFOAM.com                      |
|    \\/     M anipulation  |                                                 |
\*---------------------------------------------------------------------------*/
FoamFile
{
    version     2.0;
    format      ascii;
    class       dictionary;
    location    "constant";
    object      transportProperties;
}
// * * * * * * * * * * * * * * * * * * * * * * * * * * * * * * * * * * * * * //

activeGorterMellink true;

activeGradW true;

Q0  			Q0		[1 2 -3 0 0 0 0] 5e-4; // (en W)

Tb  			Tb 		[0 0 0 1 0 0 0] 2.0; 

tau  			tau 	[0 0 1 0 0 0 0] 1e-5;

nus              nus 	[ 0 2 -1 0 0 0 0 ] 1e-12;

Sh              Sh 	[ 0 2 0 0 0 0 0 ] 1e-6;

// ************************************************************************* //
